LTspice 24.0.12 for Windows
Circuit: * C:\Users\AJP\Desktop\QRNG\circuit\breadboardCircuit.asc
Start Time: Wed Jul 15 10:03:17 2026
solver = Normal
Maximum thread count: 16
tnom = 27
temp = 27
method = Gear
Instance "m:u1:12": Length shorter than recommended for a level 1 MOSFET.
Instance "m:u1:14": Length shorter than recommended for a level 1 MOSFET.
Direct Newton iteration failed to find .op point.  (Use ".option noopiter" to skip.)
Starting Gmin stepping
Increasing initial diagonal Gmin to 100
Increasing initial diagonal Gmin to 1000
Increasing initial diagonal Gmin to 10000
Increasing initial diagonal Gmin to 100000
Increasing initial diagonal Gmin to 1e+06
Initial Gmin=1e+06 failed
Gmin stepping failed

Starting source stepping with srcstepmethod=0
Source Step = 3.0303%
Source Step = 6.07244%
Starting source stepping with srcstepmethod=1
Source Step = 3.0303%
vernier = 0.25
Source stepping failed

Pseudo Transient failed in finding the operating point at 5 ”s.
Trouble finding operating point....skipping operating point for Transient analysis.
Changing Tseed to 1e-09
Changing Tseed to 1e-11
Changing Tseed to 1e-08
Changing Tseed to 1e-12
Changing Tseed to 1e-07
Changing Tseed to 1e-13
Changing Tseed to 1e-06
Changing Tseed to 1e-14
Changing Tseed to 1e-05
Changing Tseed to 1e-15
Changing Tseed to 0.0001
Changing Tseed to 1e-16
to 1.25e-17
Total elapsed time: 20.614 seconds.

