LTspice 24.0.12 for Windows
Circuit: * C:\Users\AJP\Desktop\QRNG\circuit\LEDCircuit.asc
Start Time: Mon Jul 13 13:35:00 2026
solver = Normal
Maximum thread count: 16
tnom = 27
temp = 27
method = modified trap
Direct Newton iteration for .op point succeeded.
Total elapsed time: 0.506 seconds.

