LTspice 24.0.12 for Windows
Circuit: * C:\Users\AJP\Desktop\QRNG\circuit\LEDCircuit2.asc
Start Time: Tue Jul 14 12:42:15 2026
solver = Normal
Maximum thread count: 16
tnom = 27
temp = 27
method = modified trap
Direct Newton iteration for .op point succeeded.
Total elapsed time: 0.302 seconds.

